/*--------------------------------*- C++ -*----------------------------------*\
| =========                 |                                                 |
| \\      /  F ield         | OpenFOAM: The Open Source CFD Toolbox           |
|  \\    /   O peration     | Version:  v2006                                 |
|   \\  /    A nd           | Website:  www.openfoam.com                      |
|    \\/     M anipulation  |                                                 |
\*---------------------------------------------------------------------------*/
FoamFile
{
    version     2.0;
    format      ascii;
    class       dictionary;
    object      fvSolution;
}
// * * * * * * * * * * * * * * * * * * * * * * * * * * * * * * * * * * * * * //

solvers
{
    p
    {
        solver          GAMG;
        smoother        GaussSeidel;
        tolerance       1e-9;
        relTol          0.01;
    }

    pFinal
    {
        $p;
        relTol          0;
    }

    "(rho|U|k|omega|e|h)"
    {
        solver          PBiCGStab;
        preconditioner  DILU;
        tolerance       1e-10;
        relTol          0.1;
    }

    "(rho|U|k|omega|e|h)Final"
    {
        $U;
        relTol          0;
    }
}

SIMPLE
{
    residualControl
    {
        p               1e-8;
        U               1e-8;
        "(h|k|omega|e)"   1e-8;
    }

    nNonOrthogonalCorrectors 0;
    pMin      0.1;
    pMax      2;
}

PIMPLE
{
    nCorrectors              2;
    nNonOrthogonalCorrectors 1;
    nOuterCorrectors         1;
    pMin      0.1;
    pMax      2;
}

relaxationFactors
{
    equations
    {
        ".*"     1;
    }
}

// ************************************************************************* //
